
  EPA STORM WATER MANAGEMENT MODEL - VERSION 5.2 (Build 5.2.4)
  ------------------------------------------------------------

  WARNING 04: minimum elevation drop used for Conduit 133723001
  
  ****************
  Analysis Options
  ****************
  Flow Units ............... LPS
  Process Models:
    Rainfall/Runoff ........ YES
    RDII ................... NO
    Snowmelt ............... NO
    Groundwater ............ NO
    Flow Routing ........... YES
    Ponding Allowed ........ NO
    Water Quality .......... NO
  Infiltration Method ...... MODIFIED_GREEN_AMPT
  Flow Routing Method ...... KINWAVE
  Starting Date ............ 07/05/2023 00:00:00
  Ending Date .............. 07/06/2023 00:00:00
  Antecedent Dry Days ...... 0.0
  Report Time Step ......... 00:05:00
  Wet Time Step ............ 00:05:00
  Dry Time Step ............ 01:00:00
  Routing Time Step ........ 20.00 sec
  
  
  **************************        Volume         Depth
  Runoff Quantity Continuity     hectare-m            mm
  **************************     ---------       -------
  Total Precipitation ......         0.225        13.000
  Evaporation Loss .........         0.011         0.610
  Infiltration Loss ........         0.137         7.899
  Surface Runoff ...........         0.078         4.501
  Final Storage ............         0.000         0.003
  Continuity Error (%) .....        -0.100
  
  
  **************************        Volume        Volume
  Flow Routing Continuity        hectare-m      10^6 ltr
  **************************     ---------     ---------
  Dry Weather Inflow .......         0.000         0.000
  Wet Weather Inflow .......         0.078         0.780
  Groundwater Inflow .......         0.000         0.000
  RDII Inflow ..............         0.000         0.000
  External Inflow ..........         0.000         0.000
  External Outflow .........         0.078         0.775
  Flooding Loss ............         0.000         0.000
  Evaporation Loss .........         0.000         0.000
  Exfiltration Loss ........         0.000         0.000
  Initial Stored Volume ....         0.000         0.000
  Final Stored Volume ......         0.000         0.000
  Continuity Error (%) .....         0.527
  
  
  ********************************
  Highest Flow Instability Indexes
  ********************************
  All links are stable.
  
  
  *************************
  Routing Time Step Summary
  *************************
  Minimum Time Step           :    20.00 sec
  Average Time Step           :    20.00 sec
  Maximum Time Step           :    20.00 sec
  % of Time in Steady State   :     0.00
  Average Iterations per Step :     1.02
  % of Steps Not Converging   :     0.00
  
  
  ***************************
  Subcatchment Runoff Summary
  ***************************
  
  ------------------------------------------------------------------------------------------------------------------------------
                            Total      Total      Total      Total     Imperv       Perv      Total       Total     Peak  Runoff
                           Precip      Runon       Evap      Infil     Runoff     Runoff     Runoff      Runoff   Runoff   Coeff
  Subcatchment                 mm         mm         mm         mm         mm         mm         mm    10^6 ltr      LPS
  ------------------------------------------------------------------------------------------------------------------------------
  C1                        13.00       0.00       0.74       7.22       5.05       0.00       5.05        0.05     7.53   0.388
  C2                        13.00       0.00       0.62       7.76       4.64       0.00       4.64        0.03     4.40   0.357
  C3                        13.00       0.00       0.00      13.00       0.00       0.00       0.00        0.00     0.00   0.000
  C4                        13.00       0.00       0.46       8.79       3.76       0.00       3.76        0.02     3.41   0.289
  C5                        13.00       0.00       0.26      10.61       2.15       0.00       2.15        0.02     2.66   0.165
  C6                        13.00       0.00       0.78       6.05       6.19       0.00       6.19        0.04     5.83   0.476
  C7                        13.00       0.00       0.52       8.39       4.11       0.00       4.11        0.03     4.07   0.316
  C9                        13.00       0.00       0.29      10.32       2.40       0.00       2.40        0.01     2.09   0.185
  C10                       13.00       0.00       0.48       8.74       3.79       0.00       3.79        0.03     4.07   0.292
  C11                       13.00       0.00       0.70       6.88       5.44       0.00       5.44        0.06    10.02   0.419
  C12                       13.00       0.00       0.00      13.00       0.00       0.00       0.00        0.00     0.00   0.000
  C13                       13.00       0.00       0.52       8.42       4.07       0.00       4.07        0.05     8.48   0.313
  C14                       13.00       0.00       0.33      10.13       2.55       0.00       2.55        0.01     1.87   0.196
  C15                       13.00       0.00       0.47       8.80       3.74       0.00       3.74        0.02     3.52   0.288
  C16                       13.00       0.00       0.69       7.03       5.29       0.00       5.29        0.04     6.82   0.407
  C17                       13.00       0.00       0.70       6.83       5.49       0.00       5.49        0.04     6.61   0.422
  C18                       13.00       0.00       0.50       8.42       4.10       0.00       4.10        0.04     5.84   0.315
  C19                       13.00       0.00       0.80       6.00       6.22       0.00       6.22        0.03     4.96   0.479
  C20                       13.00       0.00       0.23      10.90       1.87       0.00       1.87        0.02     2.64   0.144
  C21                       13.00       0.00       0.68       7.08       5.26       0.00       5.26        0.06     9.69   0.404
  C22                       13.00       0.00       0.58       8.20       4.23       0.00       4.23        0.05     8.93   0.325
  C23                       13.00       0.00       1.68       1.30       9.96       0.00       9.96        0.07    10.30   0.766
  C24                       13.00       0.00       1.64       1.30      10.07       0.00      10.07        0.04     5.34   0.775
  C25                       13.00       0.00       1.53       1.30      10.19       0.00      10.19        0.03     5.56   0.784
  
  
  ******************
  Node Depth Summary
  ******************
  
  ---------------------------------------------------------------------------------
                                 Average  Maximum  Maximum  Time of Max    Reported
                                   Depth    Depth      HGL   Occurrence   Max Depth
  Node                 Type       Meters   Meters   Meters  days hr:min      Meters
  ---------------------------------------------------------------------------------
  133701               JUNCTION     0.00     0.00    39.82     0  00:00        0.00
  133703               JUNCTION     0.00     0.00    39.62     0  00:00        0.00
  133705               JUNCTION     0.00     0.04    39.37     0  08:15        0.04
  133707               JUNCTION     0.98     1.05    38.85     0  08:15        1.05
  133729               JUNCTION     0.02     0.14    37.82     0  08:15        0.14
  133731               JUNCTION     0.02     0.15    37.73     0  08:15        0.15
  133733               JUNCTION     0.02     0.15    37.66     0  08:15        0.15
  133735               JUNCTION     0.69     0.79    38.24     0  08:15        0.79
  133751               JUNCTION     0.02     0.14    37.14     0  08:15        0.14
  133753               JUNCTION     1.06     1.14    37.61     0  08:15        1.14
  133755               JUNCTION     0.03     0.16    36.47     0  08:15        0.16
  133757               JUNCTION     0.02     0.17    36.36     0  08:15        0.17
  133759               JUNCTION     0.02     0.17    36.25     0  08:15        0.17
  133761               JUNCTION     0.61     0.72    36.68     0  08:15        0.72
  133763               JUNCTION     0.03     0.29    35.99     0  08:15        0.29
  133723               JUNCTION     0.00     0.00    38.56     0  00:00        0.00
  133723001            JUNCTION     0.02     0.24    38.67     0  08:15        0.24
  133721               JUNCTION     0.02     0.25    38.68     0  08:18        0.24
  133719               JUNCTION     0.01     0.09    38.42     0  08:15        0.09
  133717               JUNCTION     0.01     0.10    38.34     0  08:15        0.10
  133715               JUNCTION     0.01     0.10    38.32     0  08:15        0.10
  133713               JUNCTION     0.01     0.10    38.27     0  08:15        0.10
  133711               JUNCTION     0.01     0.10    38.07     0  08:15        0.10
  133709               JUNCTION     0.01     0.13    37.99     0  08:15        0.13
  133749               JUNCTION     0.00     0.02    40.95     0  08:15        0.02
  133747               JUNCTION     0.04     0.07    39.37     0  08:15        0.07
  133745               JUNCTION     0.01     0.06    39.07     0  08:15        0.06
  133743               JUNCTION     0.00     0.00    39.09     0  00:00        0.00
  133741               JUNCTION     0.01     0.07    38.89     0  08:15        0.07
  133739               JUNCTION     0.01     0.07    38.58     0  08:15        0.07
  133737               JUNCTION     0.01     0.07    38.33     0  08:16        0.07
  R33765               OUTFALL      0.03     0.29    35.98     0  08:15        0.29
  
  
  *******************
  Node Inflow Summary
  *******************
  
  -------------------------------------------------------------------------------------------------
                                  Maximum  Maximum                  Lateral       Total        Flow
                                  Lateral    Total  Time of Max      Inflow      Inflow     Balance
                                   Inflow   Inflow   Occurrence      Volume      Volume       Error
  Node                 Type           LPS      LPS  days hr:min    10^6 ltr    10^6 ltr     Percent
  -------------------------------------------------------------------------------------------------
  133701               JUNCTION      0.00     0.00     0  00:00           0           0       0.000 ltr
  133703               JUNCTION      0.00     0.00     0  00:00           0           0       0.000 ltr
  133705               JUNCTION      7.53     7.53     0  08:15      0.0465      0.0465       0.000
  133707               JUNCTION      9.73    46.77     0  08:15      0.0621        0.29       0.000
  133729               JUNCTION      0.00    46.75     0  08:15           0        0.29       0.000
  133731               JUNCTION     11.67    58.34     0  08:15      0.0719       0.361       0.000
  133733               JUNCTION      5.56    63.87     0  08:15      0.0346       0.396       0.000
  133735               JUNCTION      0.00    86.77     0  08:15           0       0.537       0.000
  133751               JUNCTION      6.61    93.33     0  08:15      0.0406       0.577       0.000
  133753               JUNCTION      0.00    93.31     0  08:15           0       0.577       0.000
  133755               JUNCTION      0.00    93.29     0  08:15           0       0.577       0.000
  133757               JUNCTION      8.48   101.70     0  08:15      0.0521       0.629       0.000
  133759               JUNCTION      6.82   108.49     0  08:15      0.0418        0.67       0.000
  133761               JUNCTION      0.00   108.47     0  08:15           0        0.67      -0.000
  133763               JUNCTION     15.69   124.12     0  08:15       0.107       0.777      -0.000
  133723               JUNCTION      0.00     0.00     0  00:00           0           0       0.000 ltr
  133723001            JUNCTION      4.96     4.96     0  08:15      0.0305      0.0305       0.000
  133721               JUNCTION      0.00     5.28     0  08:18           0      0.0299      -0.000
  133719               JUNCTION      8.93    13.85     0  08:15      0.0546      0.0845       0.000
  133717               JUNCTION      2.64    16.47     0  08:15      0.0163       0.101       0.000
  133715               JUNCTION      0.00    16.47     0  08:15           0       0.101       0.000
  133713               JUNCTION      9.69    26.15     0  08:15      0.0594        0.16       0.000
  133711               JUNCTION      0.00    26.19     0  08:15           0        0.16       0.000
  133709               JUNCTION      3.41    29.54     0  08:15      0.0211       0.181       0.000
  133749               JUNCTION      2.66     2.66     0  08:15      0.0165      0.0165       0.000
  133747               JUNCTION      0.00     2.66     0  08:15           0      0.0165       0.000
  133745               JUNCTION      4.07     6.74     0  08:15      0.0251      0.0416       0.000
  133743               JUNCTION      0.00     0.00     0  00:00           0           0       0.000 ltr
  133741               JUNCTION      6.17    12.90     0  08:15       0.038      0.0795       0.000
  133739               JUNCTION      0.00    12.94     0  08:15           0      0.0794       0.000
  133737               JUNCTION     10.02    22.92     0  08:15      0.0615       0.141       0.000
  R33765               OUTFALL       0.00   124.08     0  08:15           0       0.775       0.000
  
  
  *********************
  Node Flooding Summary
  *********************
  
  No nodes were flooded.
  
  
  ***********************
  Outfall Loading Summary
  ***********************
  
  -----------------------------------------------------------
                         Flow       Avg       Max       Total
                         Freq      Flow      Flow      Volume
  Outfall Node           Pcnt       LPS       LPS    10^6 ltr
  -----------------------------------------------------------
  R33765                30.72     29.22    124.08       0.775
  -----------------------------------------------------------
  System                30.72     29.22    124.08       0.775
  
  
  ********************
  Link Flow Summary
  ********************
  
  -----------------------------------------------------------------------------
                                 Maximum  Time of Max   Maximum    Max/    Max/
                                  |Flow|   Occurrence   |Veloc|    Full    Full
  Link                 Type          LPS  days hr:min     m/sec    Flow   Depth
  -----------------------------------------------------------------------------
  133701               CONDUIT      0.00     0  00:00      0.00    0.00    0.00
  133703               CONDUIT      0.00     0  00:00      0.00    0.00    0.00
  133705               CONDUIT      7.54     0  08:15      1.16    0.02    0.10
  133723               CONDUIT      0.00     0  00:00      0.00    0.00    0.00
  133723001            CONDUIT      5.28     0  08:18      0.07    0.49    0.47
  133721               CONDUIT      5.28     0  08:19      0.54    0.02    0.10
  133719               CONDUIT     13.90     0  08:15      0.49    0.05    0.16
  133717               CONDUIT     16.47     0  08:15      0.52    0.06    0.17
  133715               CONDUIT     16.47     0  08:15      0.66    0.03    0.12
  133713               CONDUIT     26.19     0  08:15      0.80    0.04    0.14
  133711               CONDUIT     26.17     0  08:16      0.69    0.04    0.13
  133709               CONDUIT     29.55     0  08:15      0.57    0.06    0.16
  133707               CONDUIT     46.75     0  08:15      1.76    0.02    0.09
  133729               CONDUIT     46.75     0  08:16      0.74    0.05    0.16
  133731               CONDUIT     58.31     0  08:15      0.83    0.06    0.17
  133733               CONDUIT     63.85     0  08:15      1.07    0.05    0.15
  133749               CONDUIT      2.66     0  08:15      1.15    0.01    0.07
  133747               CONDUIT      2.68     0  08:16      0.56    0.01    0.08
  133745               CONDUIT      6.77     0  08:15      0.60    0.05    0.15
  133743               CONDUIT      0.00     0  00:00      0.00    0.00    0.00
  133741               CONDUIT     12.94     0  08:15      0.73    0.03    0.11
  133739               CONDUIT     12.95     0  08:16      0.70    0.03    0.12
  133737               CONDUIT     22.92     0  08:15      1.61    0.02    0.10
  133735               CONDUIT     86.75     0  08:15      1.86    0.03    0.13
  133751               CONDUIT     93.31     0  08:15      1.44    0.05    0.16
  133753               CONDUIT     93.29     0  08:15      2.67    0.02    0.09
  133755               CONDUIT     93.28     0  08:16      1.18    0.05    0.16
  133757               CONDUIT    101.67     0  08:15      1.20    0.06    0.17
  133759               CONDUIT    108.47     0  08:15      1.51    0.05    0.15
  133761               CONDUIT    108.45     0  08:15      1.84    0.02    0.10
  133763               CONDUIT    124.08     0  08:15      0.58    0.13    0.24
  
  
  *************************
  Conduit Surcharge Summary
  *************************
  
  No conduits were surcharged.
  

  Analysis begun on:  Sun Apr  5 18:25:46 2026
  Analysis ended on:  Sun Apr  5 18:25:46 2026
  Total elapsed time: < 1 sec